
This summary information was generated by ElastoDyn (v1.04.00a-bjj, 26-Jul-2016) on 20-Sep-2022 at 15:19:48.


Turbine features:

            Upwind, three-bladed rotor with rigid hub.
            The model has 16 of 24 DOFs active (enabled) at start-up.
 Disabled   Platform horizontal surge translation DOF 
 Disabled   Platform horizontal sway translation DOF 
 Disabled   Platform vertical heave translation DOF 
 Disabled   Platform roll tilt rotation DOF 
 Disabled   Platform pitch tilt rotation DOF 
 Disabled   Platform yaw rotation DOF 
 Enabled    1st tower fore-aft bending mode DOF 
 Enabled    1st tower side-to-side bending mode DOF 
 Enabled    2nd tower fore-aft bending mode DOF 
 Enabled    2nd tower side-to-side bending mode DOF 
 Enabled    Nacelle yaw DOF 
 Disabled   Rotor-furl DOF 
 Enabled    Variable speed generator DOF 
 Enabled    Drivetrain rotational-flexibility DOF 
 Disabled   Tail-furl DOF 
 Enabled    1st flapwise bending-mode DOF of blade 1 
 Enabled    1st edgewise bending-mode DOF of blade 1 
 Enabled    2nd flapwise bending-mode DOF of blade 1 
 Enabled    1st flapwise bending-mode DOF of blade 2 
 Enabled    1st edgewise bending-mode DOF of blade 2 
 Enabled    2nd flapwise bending-mode DOF of blade 2 
 Enabled    1st flapwise bending-mode DOF of blade 3 
 Enabled    1st edgewise bending-mode DOF of blade 3 
 Enabled    2nd flapwise bending-mode DOF of blade 3 


Time steps:

    Structural            (s)        0.00800000


Some calculated parameters:

    Hub-Height            (m)            90.437
    Flexible Tower Length (m)            87.600
    Flexible Blade Length (m)            61.500


Rotor mass properties:

    Rotor Mass            (kg)       109992.734
    Rotor Inertia         (kg-m^2) 39118656.000
                                        Blade 1      Blade 2      Blade 3
                                        -------      -------      -------
    Mass                  (kg)        17737.578    17737.578    17737.578
    Second Mass Moment    (kg-m^2) 11886951.000 11886951.000 11886951.000
    First Mass Moment     (kg-m)     366280.750   366280.750   366280.750
    Center of Mass        (m)            20.650       20.650       20.650


Additional mass properties:

    Tower-top Mass        (kg)       349992.750
    Tower Mass            (kg)       348398.125
    Platform Mass         (kg)            0.000
    Mass Incl. Platform   (kg)       698390.875


Interpolated tower properties:

Node  TwFract   HNodes  DHNodes  TMassDen    FAStiff    SSStiff
 (-)      (-)      (m)      (m)    (kg/m)     (Nm^2)     (Nm^2)
   1    0.045    3.982    7.964  5415.138  5.768E+11  5.768E+11
   2    0.136   11.945    7.964  5099.468  5.081E+11  5.081E+11
   3    0.227   19.909    7.964  4793.062  4.456E+11  4.456E+11
   4    0.318   27.873    7.964  4495.919  3.890E+11  3.890E+11
   5    0.409   35.836    7.964  4208.041  3.379E+11  3.379E+11
   6    0.500   43.800    7.964  3929.426  2.920E+11  2.920E+11
   7    0.591   51.764    7.964  3661.104  2.513E+11  2.513E+11
   8    0.682   59.727    7.964  3402.045  2.149E+11  2.149E+11
   9    0.773   67.691    7.964  3152.250  1.827E+11  1.827E+11
  10    0.864   75.655    7.964  2911.719  1.541E+11  1.541E+11
  11    0.955   83.618    7.964  2680.452  1.290E+11  1.290E+11


Interpolated blade 1 properties:

Node  BlFract   RNodes  DRNodes PitchAxis  StrcTwst  BMassDen    FlpStff    EdgStff
 (-)      (-)      (m)      (m)       (-)     (deg)    (kg/m)     (Nm^2)     (Nm^2)
   1    0.029    3.309    3.618     0.500    13.308   796.588  1.823E+10  1.952E+10
   2    0.088    6.926    3.618     0.466    13.308   469.817  7.021E+09  9.977E+09
   3    0.147   10.544    3.618     0.429    13.308   419.673  4.944E+09  6.990E+09
   4    0.206   14.162    3.618     0.391    12.545   417.386  3.177E+09  6.695E+09
   5    0.265   17.779    3.618     0.375    10.770   366.107  2.263E+09  4.796E+09
   6    0.324   21.397    3.618     0.375     9.757   350.422  1.862E+09  4.283E+09
   7    0.382   25.015    3.618     0.375     8.731   334.776  1.440E+09  3.835E+09
   8    0.441   28.632    3.618     0.375     7.647   307.882  9.968E+08  3.304E+09
   9    0.500   32.250    3.618     0.375     6.549   275.497  6.410E+08  2.685E+09
  10    0.559   35.868    3.618     0.375     5.498   253.660  4.010E+08  2.292E+09
  11    0.618   39.485    3.618     0.375     4.462   214.088  2.468E+08  1.610E+09
  12    0.676   43.103    3.618     0.375     3.482   179.078  1.409E+08  1.225E+09
  13    0.735   46.721    3.618     0.375     2.693   154.915  9.890E+07  9.067E+08
  14    0.794   50.338    3.618     0.375     1.993   129.463  7.144E+07  6.485E+08
  15    0.853   53.956    3.618     0.375     1.292   103.287  4.819E+07  4.472E+08
  16    0.912   57.574    3.618     0.375     0.598    78.437  3.095E+07  3.109E+08
  17    0.971   61.191    3.618     0.375     0.141    51.993  1.013E+07  1.019E+08


Interpolated blade 2 properties:

Node  BlFract   RNodes  DRNodes PitchAxis  StrcTwst  BMassDen    FlpStff    EdgStff
 (-)      (-)      (m)      (m)       (-)     (deg)    (kg/m)     (Nm^2)     (Nm^2)
   1    0.029    3.309    3.618     0.500    13.308   796.588  1.823E+10  1.952E+10
   2    0.088    6.926    3.618     0.466    13.308   469.817  7.021E+09  9.977E+09
   3    0.147   10.544    3.618     0.429    13.308   419.673  4.944E+09  6.990E+09
   4    0.206   14.162    3.618     0.391    12.545   417.386  3.177E+09  6.695E+09
   5    0.265   17.779    3.618     0.375    10.770   366.107  2.263E+09  4.796E+09
   6    0.324   21.397    3.618     0.375     9.757   350.422  1.862E+09  4.283E+09
   7    0.382   25.015    3.618     0.375     8.731   334.776  1.440E+09  3.835E+09
   8    0.441   28.632    3.618     0.375     7.647   307.882  9.968E+08  3.304E+09
   9    0.500   32.250    3.618     0.375     6.549   275.497  6.410E+08  2.685E+09
  10    0.559   35.868    3.618     0.375     5.498   253.660  4.010E+08  2.292E+09
  11    0.618   39.485    3.618     0.375     4.462   214.088  2.468E+08  1.610E+09
  12    0.676   43.103    3.618     0.375     3.482   179.078  1.409E+08  1.225E+09
  13    0.735   46.721    3.618     0.375     2.693   154.915  9.890E+07  9.067E+08
  14    0.794   50.338    3.618     0.375     1.993   129.463  7.144E+07  6.485E+08
  15    0.853   53.956    3.618     0.375     1.292   103.287  4.819E+07  4.472E+08
  16    0.912   57.574    3.618     0.375     0.598    78.437  3.095E+07  3.109E+08
  17    0.971   61.191    3.618     0.375     0.141    51.993  1.013E+07  1.019E+08


Interpolated blade 3 properties:

Node  BlFract   RNodes  DRNodes PitchAxis  StrcTwst  BMassDen    FlpStff    EdgStff
 (-)      (-)      (m)      (m)       (-)     (deg)    (kg/m)     (Nm^2)     (Nm^2)
   1    0.029    3.309    3.618     0.500    13.308   796.588  1.823E+10  1.952E+10
   2    0.088    6.926    3.618     0.466    13.308   469.817  7.021E+09  9.977E+09
   3    0.147   10.544    3.618     0.429    13.308   419.673  4.944E+09  6.990E+09
   4    0.206   14.162    3.618     0.391    12.545   417.386  3.177E+09  6.695E+09
   5    0.265   17.779    3.618     0.375    10.770   366.107  2.263E+09  4.796E+09
   6    0.324   21.397    3.618     0.375     9.757   350.422  1.862E+09  4.283E+09
   7    0.382   25.015    3.618     0.375     8.731   334.776  1.440E+09  3.835E+09
   8    0.441   28.632    3.618     0.375     7.647   307.882  9.968E+08  3.304E+09
   9    0.500   32.250    3.618     0.375     6.549   275.497  6.410E+08  2.685E+09
  10    0.559   35.868    3.618     0.375     5.498   253.660  4.010E+08  2.292E+09
  11    0.618   39.485    3.618     0.375     4.462   214.088  2.468E+08  1.610E+09
  12    0.676   43.103    3.618     0.375     3.482   179.078  1.409E+08  1.225E+09
  13    0.735   46.721    3.618     0.375     2.693   154.915  9.890E+07  9.067E+08
  14    0.794   50.338    3.618     0.375     1.993   129.463  7.144E+07  6.485E+08
  15    0.853   53.956    3.618     0.375     1.292   103.287  4.819E+07  4.472E+08
  16    0.912   57.574    3.618     0.375     0.598    78.437  3.095E+07  3.109E+08
  17    0.971   61.191    3.618     0.375     0.141    51.993  1.013E+07  1.019E+08


Requested Outputs:


  Col  Parameter  Units
  ---  ---------  -----
   0   Time       (s)       
   1   OoPDefl1   (m)       
   2   OoPDefl2   (m)       
   3   OoPDefl3   (m)       
   4   IPDefl1    (m)       
   5   IPDefl2    (m)       
   6   IPDefl3    (m)       
   7   NcIMUTAxs  (m/s^2)   
   8   NcIMUTAys  (m/s^2)   
   9   NcIMUTAzs  (m/s^2)   
  10   RootMOoP1  (kN·m)    
  11   RootMOoP2  (kN·m)    
  12   RootMOoP3  (kN·m)    
  13   RootMIP1   (kN·m)    
  14   RootMIP2   (kN·m)    
  15   RootMIP3   (kN·m)    
  16   RootMFlp1  (kN·m)    
  17   RootMFlp2  (kN·m)    
  18   RootMFlp3  (kN·m)    
  19   RootMEdg1  (kN·m)    
  20   RootMEdg2  (kN·m)    
  21   RootMEdg3  (kN·m)    
  22   TwrBsMxt   (kN·m)    
  23   TwrBsMyt   (kN·m)    
  24   TwrBsMzt   (kN·m)    
  25   LSSTipMya  (kN·m)    
  26   LSSTipMza  (kN·m)    
  27   LSSTipVxa  (rpm)     
  28   GenSpeed   (rpm)     
  29   BlPitch1   (deg)     
  30   Azimuth    (deg)     
  31   RotPwr     (kW)      
  32   RotThrust  (kN)      
  33   RotSpeed   (rpm)     
  34   HSShftTq   (kN·m)    
